$# LS-DYNA Keyword file created by LS-PrePost(R) V4.3.20 - 09Jan2018
$# Created on Jul-07-2024 (19:43:19)
*KEYWORD
*TITLE
$#                                                                         title
LS-DYNA keyword deck by LS-PrePost
*CONTROL_ENERGY
$#    hgen      rwen    slnten     rylen     
         2         2         2         2
*CONTROL_HOURGLASS
$#     ihq        qh  
         4      0.03
*CONTROL_TERMINATION
$#  endtim    endcyc     dtmin    endeng    endmas      
      0.06         0       0.0       0.01.000000E8
*CONTROL_TIMESTEP
$#  dtinit    tssfac      isdo    tslimt     dt2ms      lctm     erode     ms1st
       0.0       0.7         0       0.0-2.2150E-8         0         0         0
$#  dt2msf   dt2mslc     imscl    unused    unused     rmscl     
       0.0         0         0                           0.0
*DATABASE_BNDOUT
$#      dt    binary      lcur     ioopt     
1.00000E-4         0         0         1
*DATABASE_GLSTAT
$#      dt    binary      lcur     ioopt     
1.00000E-4         0         0         1
*DATABASE_MATSUM
$#      dt    binary      lcur     ioopt     
1.00000E-4         0         0         1
*DATABASE_NCFORC
$#      dt    binary      lcur     ioopt     
1.00000E-4         0         0         1
*DATABASE_NODFOR
$#      dt    binary      lcur     ioopt     
1.00000E-4         0         0         1
*DATABASE_NODOUT
$#      dt    binary      lcur     ioopt   option1   option2       
1.00000E-4         0         0         1       0.0         0
*DATABASE_RCFORC
$#      dt    binary      lcur     ioopt     
1.00000E-4         0         0         1
*DATABASE_SLEOUT
$#      dt    binary      lcur     ioopt     
1.00000E-4         0         0         1
*DATABASE_BINARY_D3PLOT
$#      dt      lcdt      beam     npltc    psetid      
     0.001         0         0         0         0
$#   ioopt     
         0
*DATABASE_EXTENT_BINARY
$#   neiph     neips    maxint    strflg    sigflg    epsflg    rltflg    engflg
         0         0         3         1         1         1         1         1
$#  cmpflg    ieverp    beamip     dcomp      shge     stssz    n3thdt   ialemat
         0         0         0         1         1         1         2         1
$# nintsld   pkp_sen      sclp     hydro     msscl     therm    intout    nodout
         0         0       1.0         0         0         0                    
$#    dtdt    resplt     neipb     
         0         0         0
*DATABASE_NODAL_FORCE_GROUP
$#    nsid       cid   
         2         0
*DATABASE_HISTORY_NODE_SET
$#     id1       id2       id3       id4       id5       id6       id7       id8
         2         0         0         0         0         0         0         0
*DATABASE_HISTORY_NODE
$#     id1       id2       id3       id4       id5       id6       id7       id8
   6459234   6456893   6455773         0         0         0         0         0
*BOUNDARY_SPC_SET_ID
$#      id                                                               heading
         0node-post
$#    nsid       cid      dofx      dofy      dofz     dofrx     dofry     dofrz
         3         0         0         1         1         1         1         1
*SET_NODE_LIST_TITLE
Node-post
$#     sid       da1       da2       da3       da4    solver      
         3       0.0       0.0       0.0       0.0MECH
$#    nid1      nid2      nid3      nid4      nid5      nid6      nid7      nid8
   6455295         0         0         0         0         0         0         0
*BOUNDARY_SPC_SET_ID
$#      id                                                               heading
         0Discrete
$#    nsid       cid      dofx      dofy      dofz     dofrx     dofry     dofrz
         4         0         1         1         1         1         1         1
*SET_NODE_LIST_TITLE
Discrete
$#     sid       da1       da2       da3       da4    solver      
         4       0.0       0.0       0.0       0.0MECH
$#    nid1      nid2      nid3      nid4      nid5      nid6      nid7      nid8
   6461073   6461075   6461077   6461079   6461081   6461353   6461355   6461357
   6461359   6461361   6461363   6461365   6461367   6461369   6461371   6461373
   6461375   6461377   6461379   6461381   6461383   6461385   6461387   6461389
   6461391   6461393   6461395   6461397   6461399   6461401   6461403   6461405
   6461407   6461409   6461411   6461413   6461415   6461417   6461419   6461421
   6461423   6461425   6461427   6461429   6461431   6461433   6461435   6461437
   6461439   6461441   6461443   6461445   6461447   6461449   6461451   6461453
   6461455   6461457   6461459   6461461   6461463   6461465   6461467   6461469
   6461471   6461473   6461475   6461477   6461479   6461481   6461243   6461245
   6461247   6461249   6461251   6461253   6461255   6461257   6461259   6461261
   6461263   6461265   6461267   6461269   6461271   6461273   6461275   6461277
   6461279   6461281   6461283   6461285   6461287   6461289   6461291   6461293
   6461295   6461297   6461299   6461301   6461303   6461305   6461307   6461309
   6461311   6461313   6461315   6461317   6461319   6461321   6461323   6461325
   6461327   6461329   6461331   6461333   6461335   6461337   6461339   6461341
   6461343   6461345   6461347   6461349   6461351   6461163   6461165   6461167
   6461169   6461171   6461173   6461175   6461177   6461179   6461181   6461183
   6461185   6461187   6461189   6461191   6461193   6461195   6461197   6461199
   6461201   6461203   6461205   6461207   6461209   6461211   6461213   6461215
   6461217   6461219   6461221   6461223   6461225   6461227   6461229   6461231
$ ... 52 like lines cut
*CONTACT_AUTOMATIC_SURFACE_TO_SURFACE_ID
$#     cid                                                                 title
         4impactor-post
$#    ssid      msid     sstyp     mstyp    sboxid    mboxid       spr       mpr
         1         1         2         3         0         0         0         0
$#      fs        fd        dc        vc       vdc    penchk        bt        dt
       0.2       0.2       0.0       0.0       0.0         0       0.01.00000E20
$#     sfs       sfm       sst       mst      sfst      sfmt       fsf       vsf
       1.0       1.0      10.0       0.0       1.0       1.0       1.0       1.0
$#    soft    sofscl    lcidab    maxpar     sbopt     depth     bsort    frcfrq
         1       0.0         0       0.0       0.0         0         0         0
*SET_PART_LIST_TITLE
impacteur+caoutchouc
$#     sid       da1       da2       da3       da4    solver      
         1       0.0       0.0       0.0       0.0MECH
$#    pid1      pid2      pid3      pid4      pid5      pid6      pid7      pid8
         4         5         0         0         0         0         0         0
*PART
$#                                                                         title
Post
$#     pid     secid       mid     eosid      hgid      grav    adpopt      tmid
         1         1         1         0         1         0         0         0
*SECTION_SOLID_TITLE
poteau
$#   secid    elform       aet   
         1         1         0
*MAT_WOOD_PINE_TITLE
Post
$#     mid        ro     nplot     iters     irate      hard     ifail      ivol
         16.7200E-10         1         1         0       0.0         0         0
$#    mois      temp    qual_t    qual_c     units     iqual     
      20.0      20.0      -2.0       0.0         2         0
$#    aopt    
       2.0
$#      xp        yp        zp        a1        a2        a3  
       0.0       0.0       0.0       0.0       0.0       1.0
$#      d1        d2        d3        v1        v2        v3  
       0.0       1.0       0.0       0.0       0.0       0.0
*HOURGLASS_TITLE
hourglass
$#    hgid       ihq        qm       ibq        q1        q2    qb/vdc        qw
         1         4      0.03         0       1.5      0.06       0.0       0.0
*PART
$#                                                                         title
Discrete1
$#     pid     secid       mid     eosid      hgid      grav    adpopt      tmid
         2         6        10         0         0         0         0         0
*SECTION_DISCRETE_TITLE
Discrete
$#   secid       dro        kd        v0        cl        fd  
         6         0       0.0       0.0       0.0       0.0
$#     cdl       tdl   
       0.0       0.0
*MAT_SPRING_NONLINEAR_ELASTIC_TITLE
Discrete
$#     mid       lcd       lcr   
        10         1         0
*PART
$#                                                                         title
Discrete2
$#     pid     secid       mid     eosid      hgid      grav    adpopt      tmid
         3         6        10         0         0         0         0         0
*PART
$#                                                                         title
impactor
$#     pid     secid       mid     eosid      hgid      grav    adpopt      tmid
         4         4         8         0         1         0         0         0
*SECTION_SOLID_TITLE
impacteur
$#   secid    elform       aet   
         4         1         0
*MAT_ELASTIC_TITLE
elastic
$#     mid        ro         e        pr        da        db  not used        
         81.99300E-8  210000.0       0.3       0.0       0.0         0
*PART
$#                                                                         title
Rubber
$#     pid     secid       mid     eosid      hgid      grav    adpopt      tmid
         5         5         9         0         1         0         0         0
*SECTION_SOLID_TITLE
caoutchouc
$#   secid    elform       aet   
         5         1         0
*MAT_BLATZ-KO_RUBBER_TITLE
caoutchouc
$#     mid        ro         g       ref   
         99.3000E-10       0.6       0.0
*SECTION_SOLID_TITLE
sol
$#   secid    elform       aet   
         2         1         0
*SECTION_SHELL_TITLE
exterieur
$#   secid    elform      shrf       nip     propt   qr/irid     icomp     setyp
         3         2      0.83         3       1.0         0         0         1
$#      t1        t2        t3        t4      nloc     marea      idof    edgset
       0.1       0.1       0.1       0.1       0.0       0.0       0.0         0
*MAT_RIGID_TITLE
impacteur
$#     mid        ro         e        pr         n    couple         m     alias
         49.27200E-9  210000.0       0.3       0.0       0.0       0.0          
$#     cmo      con1      con2    
       0.0         1         0
$#lco or a1        a2        a3        v1        v2        v3  
       0.0       0.0       0.0       0.0       0.0       0.0
*MAT_NULL_TITLE
null
$#     mid        ro        pc        mu     terod     cerod        ym        pr
         52.20000E-9       0.0       0.0       0.0       0.0       0.0       0.0
*INITIAL_VELOCITY_GENERATION
$#nsid/pid      styp     omega        vx        vy        vz     ivatn      icid
         1         1       0.0  3872.983       0.0       0.0         0         0
$#      xc        yc        zc        nx        ny        nz     phase    irigid
       0.0       0.0       0.0       0.0       0.0       0.0         0         0
*DEFINE_CURVE_TITLE
CurveH
$#    lcid      sidr       sfa       sfo      offa      offo    dattyp     lcint
         1         0       1.0   0.00325       0.0       0.0         0         0
$#                a1                  o1  
           -99.99988           -127727.7
           -99.89884           -127565.4
           -99.79874           -127404.5
           -99.69865           -127243.6
           -99.59855           -127082.7
           -99.49845           -126921.9
           -99.39835           -126761.0
           -99.29826           -126600.1
           -99.19816           -126439.3
           -99.09805           -126326.3
           -98.99796           -126236.5
           -98.89786           -126146.8
           -98.79776           -126057.0
           -98.69766           -125967.2
           -98.59756           -125877.4
           -98.49747           -125787.6
           -98.39737           -125697.9
           -98.29727           -125591.0
           -98.19717           -125450.9
           -98.09708           -125310.8
$ ... 1979 like lines cut
*SET_NODE_LIST_TITLE
Post-force
$#     sid       da1       da2       da3       da4    solver      
         2       0.0       0.0       0.0       0.0MECH
$#    nid1      nid2      nid3      nid4      nid5      nid6      nid7      nid8
   6455146   6455155   6455164   6455173   6455182   6455191   6455200   6455209
   6455218   6455227   6455236   6455245   6455254   6455263   6455272   6455281
   6455290   6455299   6455308   6455317   6454921   6454930   6454939   6454948
   6454957   6454966   6454975   6454984   6454993   6455002   6455011   6455020
   6455029   6455038   6455047   6455056   6455065   6455074   6455083   6455092
   6455101   6455110   6455119   6455128   6455137   6454696   6454705   6454714
   6454723   6454732   6454741   6454750   6454759   6454768   6454777   6454786
   6454795   6454804   6454813   6454822   6454831   6454840   6454849   6454858
   6454867   6454876   6454885   6454894   6454903   6454912   6454471   6454480
   6454489   6454498   6454507   6454516   6454525   6454534   6454543   6454552
   6454561   6454570   6454579   6454588   6454597   6454606   6454615   6454624
   6454633   6454642   6454651   6454660   6454669   6454678   6454687   6454021
   6454030   6454039   6454048   6454057   6454066   6454075   6454084   6454093
   6454102   6454111   6454120   6454129   6454138   6454147   6454156   6454165
   6454174   6454183   6454192   6454201   6454210   6454219   6454228   6454237
   6454246   6454255   6454264   6454273   6454282   6454291   6454300   6454309
   6454318   6454327   6454336   6454345   6454354   6454363   6454372   6454381
   6454390   6454399   6454408   6454417   6454426   6454435   6454444   6454453
   6454462   6453751   6453760   6453769   6453778   6453787   6453796   6453805
   6453814   6453823   6453832   6453841   6453850   6453859   6453868   6453877
$ ... 6 like lines cut
*ELEMENT_SOLID
$#   eid     pid      n1      n2      n3      n4      n5      n6      n7      n8
 6106511       1 6453473 6453474 6453483 6453482 6453518 6453519 6453528 6453527
 6106512       1 6453474 6453475 6453484 6453483 6453519 6453520 6453529 6453528
 6106513       1 6453475 6453476 6453485 6453484 6453520 6453521 6453530 6453529
 6106514       1 6453476 6453477 6453486 6453485 6453521 6453522 6453531 6453530
 6106515       1 6453477 6453478 6453487 6453486 6453522 6453523 6453532 6453531
 6106516       1 6453478 6453479 6453488 6453487 6453523 6453524 6453533 6453532
 6106517       1 6453479 6453480 6453489 6453488 6453524 6453525 6453534 6453533
 6106518       1 6453480 6453481 6453490 6453489 6453525 6453526 6453535 6453534
 6106519       1 6453482 6453483 6453492 6453491 6453527 6453528 6453537 6453536
 6106520       1 6453483 6453484 6453493 6453492 6453528 6453529 6453538 6453537
 6106521       1 6453484 6453485 6453494 6453493 6453529 6453530 6453539 6453538
 6106522       1 6453485 6453486 6453495 6453494 6453530 6453531 6453540 6453539
 6106523       1 6453486 6453487 6453496 6453495 6453531 6453532 6453541 6453540
 6106524       1 6453487 6453488 6453497 6453496 6453532 6453533 6453542 6453541
 6106525       1 6453488 6453489 6453498 6453497 6453533 6453534 6453543 6453542
 6106526       1 6453489 6453490 6453499 6453498 6453534 6453535 6453544 6453543
 6106527       1 6453491 6453492 6453501 6453500 6453536 6453537 6453546 6453545
 6106528       1 6453492 6453493 6453502 6453501 6453537 6453538 6453547 6453546
 6106529       1 6453493 6453494 6453503 6453502 6453538 6453539 6453548 6453547
 6106530       1 6453494 6453495 6453504 6453503 6453539 6453540 6453549 6453548
$ ... 4542 like lines cut
*ELEMENT_DISCRETE
$#   eid     pid      n1      n2     vid               s      pf          offset
 6111121       2 6455281 6461073       0             1.0       0             0.0
 6111122       2 6455317 6461075       0             1.0       0             0.0
 6111123       2 6455308 6461077       0             1.0       0             0.0
 6111124       2 6455299 6461079       0             1.0       0             0.0
 6111125       2 6455290 6461081       0             1.0       0             0.0
 6111126       2 6453481 6461083       0             1.0       0             0.0
 6111127       2 6453517 6461085       0             1.0       0             0.0
 6111128       2 6453508 6461087       0             1.0       0             0.0
 6111129       2 6453499 6461089       0             1.0       0             0.0
 6111130       2 6453490 6461091       0             1.0       0             0.0
 6111131       2 6453526 6461093       0             1.0       0             0.0
 6111132       2 6453562 6461095       0             1.0       0             0.0
 6111133       2 6453553 6461097       0             1.0       0             0.0
 6111134       2 6453544 6461099       0             1.0       0             0.0
 6111135       2 6453535 6461101       0             1.0       0             0.0
 6111136       2 6453571 6461103       0             1.0       0             0.0
 6111137       2 6453607 6461105       0             1.0       0             0.0
 6111138       2 6453598 6461107       0             1.0       0             0.0
 6111139       2 6453589 6461109       0             1.0       0             0.0
 6111140       2 6453580 6461111       0             1.0       0             0.0
$ ... 554 like lines cut
*NODE
$#   nid               x               y               z      tc      rc  
 6453473          -100.0           -50.0           800.0       0       0
 6453474           -75.0           -50.0           800.0       0       0
 6453475           -50.0           -50.0           800.0       0       0
 6453476           -25.0           -50.0           800.0       0       0
 6453477             0.0           -50.0           800.0       0       0
 6453478            25.0           -50.0           800.0       0       0
 6453479            50.0           -50.0           800.0       0       0
 6453480            75.0           -50.0           800.0       0       0
 6453481           100.0           -50.0           800.0       0       0
 6453482          -100.0           -25.0           800.0       0       0
 6453483           -75.0           -25.0           800.0       0       0
 6453484           -50.0           -25.0           800.0       0       0
 6453485           -25.0           -25.0           800.0       0       0
 6453486             0.0           -25.0           800.0       0       0
 6453487            25.0           -25.0           800.0       0       0
 6453488            50.0           -25.0           800.0       0       0
 6453489            75.0           -25.0           800.0       0       0
 6453490           100.0           -25.0           800.0       0       0
 6453491          -100.0             0.0           800.0       0       0
 6453492           -75.0             0.0           800.0       0       0
$ ... 6868 like lines cut
*END
